Circuit: * C:\Users\elima\OneDrive\Documents\GitHub\Inductor_Saturation_Tester\Inductor_Saturation_Tester-KiCAD\Saturation_Tester.asc

WARNING: Less than two connections to node NC_01.  This node is used by S:U2:1.
WARNING: Less than two connections to node N007.  This node is used by A1.
Direct Newton iteration for .op point succeeded.
Ignoring empty pin current: Ix(u1:1)
Ignoring empty pin current: Ix(u1:2)
Ignoring empty pin current: Ix(u1:1)
Ignoring empty pin current: Ix(u1:2)

Date: Tue Aug 23 11:48:13 2022
Total elapsed time: 0.652 seconds.

tnom = 27
temp = 27
method = modified trap
totiter = 45606
traniter = 45579
tranpoints = 11827
accept = 8606
rejected = 3221
matrix size = 68
fillins = 38
solver = Normal
Matrix Compiler1:     305 opcodes  1.1/[0.6]/0.7
Matrix Compiler2: 5.78 KB object code size  0.5/0.9/[0.3]

